-- Copyright (C) 2023 NORCE

----------------------------------------------------------------------------
RUNSPEC
----------------------------------------------------------------------------
DIMENS 
130 1 62 /

EQLDIMS
/

TABDIMS
7 1* 200000 200000 /

INCLUDE
'../co2_miscible/RUNSPEC.inc' /

METRIC

START
1 'JAN' 2025 /

WELLDIMS
2 62 2 2 /

UNIFIN
UNIFOUT
----------------------------------------------------------------------------
GRID
----------------------------------------------------------------------------
INIT
INCLUDE
'GRID.INC' /

INCLUDE
'PERMX.INC' /

COPY 
PERMX PERMY /
PERMX PERMZ /
/

MULTIPLY
PERMZ 0.1 /
/

INCLUDE
'PORO.INC' /

-- INCLUDE
-- 'THCONR.INC' /
----------------------------------------------------------------------------
PROPS
----------------------------------------------------------------------------
INCLUDE
'TABLES.INC' /

INCLUDE
'../co2_miscible/PVT.inc' /

----------------------------------------------------------------------------
REGIONS
----------------------------------------------------------------------------
INCLUDE
'SATNUM.INC' /
----------------------------------------------------------------------------
SOLUTION
---------------------------------------------------------------------------
EQUIL
 0 196.2 1200.0 0 0 0 1 1 0 /

RPTRST
 'BASIC=2' DEN/

RSVD
0   0.0
1200.0 0.0 /

----------------------------------------------------------------------------
SCHEDULE
----------------------------------------------------------------------------
RPTRST
 'BASIC=2' DEN/

WELSPECS
	'INJ0'	'G1'	57	1	1*	'GAS' 0.15/
	'INJ1'	'G1'	103	1	1*	'GAS' 0.15/
/
COMPDAT
	'INJ0'	57	1	51	51	'OPEN'	1*	1*	0.3 /
	'INJ1'	103	1	26	26	'OPEN'	1*	1*	0.3 /
/

TUNING
1e-2 3650.0 1e-10 2* 1e-12/
/
/
WCONINJE
'INJ0' 'OIL' SHUT
'RATE'  0.000000E+00  1* 400/
'INJ1' 'OIL' SHUT
'RATE'  0.000000E+00  1* 400/
/
-- WTEMP
--  'INJ0' 10.0 /
--  'INJ1' 10.0 /
-- /
TSTEP
1*365000.0
/
TUNING
1e-2 365.0 1e-10 2* 1e-12/
/
/
WCONINJE
'INJ0' 'GAS' OPEN
'RATE'  1.618471E+03  1* 400/
'INJ1' 'OIL' SHUT
'RATE'  0.000000E+00  1* 400/
/
-- WTEMP
-- 'INJ0' 10.0 /
-- 'INJ1' 10.0 /
-- /
TSTEP
1*9125.0
/
TUNING
1e-2 365.0 1e-10 2* 1e-12/
/
/
WCONINJE
'INJ0' 'GAS' OPEN
'RATE'  1.618471E+03  1* 400/
'INJ1' 'GAS' OPEN
'RATE'  1.618471E+03  1* 400/
/
-- WTEMP
--  'INJ0' 10.0 /
--  'INJ1' 10.0 /
-- /
TSTEP
1*9125.0
/
TUNING
1e-2 3650.0 1e-10 2* 1e-12/
/
/
WCONINJE
'INJ0' 'OIL' SHUT
'RATE'  0.000000E+00  1* 400/
'INJ1' 'OIL' SHUT
'RATE'  0.000000E+00  1* 400/
/
-- WTEMP
--  'INJ0' 10.0 /
--  'INJ1' 10.0 /
-- /
TSTEP
1*346750.0
/
