-- Copyright (C) 2023 NORCE

----------------------------------------------------------------------------
RUNSPEC
----------------------------------------------------------------------------
DIMENS
130 1 62 /

OIL
GAS
CO2STORE

EQLDIMS
/

TABDIMS
/

WELLDIMS
10 60 10 20 /

UNIFOUT
----------------------------------------------------------------------------
GRID
----------------------------------------------------------------------------
INIT

INCLUDE
'GRID.INC' /

PORO
8060*0.2
/

PERMX
8060*20
/

COPY 
PERMX PERMY /
PERMX PERMZ /
/
----------------------------------------------------------------------------
PROPS
----------------------------------------------------------------------------
SGOF
0. 0. 1. 0.
1. 1. 0. 0. /
----------------------------------------------------------------------------
SOLUTION
----------------------------------------------------------------------------
EQUIL
0 2 10 /

RPTRST
BASIC=2 /
----------------------------------------------------------------------------
SCHEDULE
----------------------------------------------------------------------------